test2/24Nodes.xiidm
<?xml version="1.0" encoding="ISO-8859-1" standalone="no"?>
<network xmlns="http://www.itesla_project.eu/schema/iidm/1_0" xmlns:as="http://www.itesla_project.eu/schema/iidm/ext/active-season/1_0" xmlns:bbsp="http://www.itesla_project.eu/schema/iidm/ext/busbarsectionposition/1_0" xmlns:clps="http://www.itesla_project.eu/schema/iidm/ext/current-limits-per-season/1_0" xmlns:cp="http://www.itesla_project.eu/schema/iidm/ext/connectable_position/1_0" xmlns:gapc="http://www.itesla_project.eu/schema/iidm/ext/generator_active_power_control/1_0" xmlns:gec="http://www.itesla_project.eu/schema/iidm/ext/generator_entsoe_category/1_0" xmlns:gs="http://www.itesla_project.eu/schema/iidm/ext/generator_startup/1_0" xmlns:hapc="http://www.itesla_project.eu/schema/iidm/ext/hvdc_angle_droop_active_power_control/1_0" xmlns:hopr="http://www.itesla_project.eu/schema/iidm/ext/hvdc_operator_active_power_range/1_0" xmlns:ld="http://www.itesla_project.eu/schema/iidm/ext/load_detail/1_0" xmlns:sa="http://www.itesla_project.eu/schema/iidm/ext/standby_automaton/1_0" id="PJM_5nodes" caseDate="2015-09-29T09:14:00.000+01:00" forecastDistance="0" sourceFormat="NF">

    <!-- reference bus is the first bus: bus 3 -->                
  <substation id="substation_1" country="FR" tso="RTE">
    <property name="paysCvg" value="FRANCE"/>
    <property name="regionCvg" value="LILLE"/>
    <voltageLevel id="poste_1" nominalV="400" lowVoltageLimit="380" highVoltageLimit="420" topologyKind="NODE_BREAKER">
      <nodeBreakerTopology nodeCount="9">
        <busbarSection id="N1_B1" name="B1" node="0" v="400" angle="0"/>
        <!--<busbarSection id="N1_B2" name="B2" node="1" v="400" angle="0"/>-->
        <switch id="N1_1" name="N1_1" kind="DISCONNECTOR" retained="false" open="false" node1="0" node2="1"/>
	<switch id="N1_2" name="N1_2" kind="DISCONNECTOR" retained="false" open="false" node1="0" node2="2"/>
	<switch id="N1_3" name="N1_3" kind="DISCONNECTOR" retained="false" open="false" node1="0" node2="3"/>
	<switch id="N1_4" name="N1_4" kind="DISCONNECTOR" retained="false" open="false" node1="0" node2="4"/>
	<switch id="N1_5" name="N1_5" kind="DISCONNECTOR" retained="false" open="false" node1="0" node2="5"/>
	<switch id="N1_6" name="N1_6" kind="DISCONNECTOR" retained="false" open="false" node1="0" node2="6"/>
	<switch id="N1_7" name="N1_7" kind="DISCONNECTOR" retained="false" open="false" node1="0" node2="7"/>
      </nodeBreakerTopology>
    <generator id="g1" energySource="THERMAL" minP="0"  maxP="1809.1" voltageRegulatorOn="true" targetP="408.62" targetQ="0" targetV="400" node="6" p="-408.62">
        <property name="genreCvg" value="GAZ"/>
        <reactiveCapabilityCurve>
          <point p="0" minQ="-200" maxQ="200"/>
          <point p="2000" minQ="-200" maxQ="200"/>
        </reactiveCapabilityCurve>
    </generator>
    <load id="L1" loadType="UNDEFINED" p0="7576.36410319635" q0="0" node="7" p="7576.36410319635"/>
    </voltageLevel>
  </substation>
                     
  <substation id="substation_2" country="FR" tso="RTE">
    <property name="paysCvg" value="FRANCE"/>
    <property name="regionCvg" value="LILLE"/>
    <voltageLevel id="poste_2" nominalV="400" lowVoltageLimit="380" highVoltageLimit="420" topologyKind="NODE_BREAKER">
      <nodeBreakerTopology nodeCount="10">
        <busbarSection id="N2_B1" name="B1" node="0" v="400" angle="0"/>
        <!--<busbarSection id="N2_B2" name="B2" node="1" v="400" angle="0"/>-->
	<switch id="N2_1" name="N2_1" kind="DISCONNECTOR" retained="false" open="false" node1="0" node2="1"/>
	<switch id="N2_2" name="N2_2" kind="DISCONNECTOR" retained="false" open="false" node1="0" node2="2"/>
	<switch id="N2_3" name="N2_3" kind="DISCONNECTOR" retained="false" open="false" node1="0" node2="3"/>
	<switch id="N2_4" name="N2_4" kind="DISCONNECTOR" retained="false" open="false" node1="0" node2="4"/>
	<switch id="N2_5" name="N2_5" kind="DISCONNECTOR" retained="false" open="false" node1="0" node2="5"/>
	<switch id="N2_6" name="N2_6" kind="DISCONNECTOR" retained="false" open="false" node1="0" node2="6"/>
	<switch id="N2_7" name="N2_7" kind="DISCONNECTOR" retained="false" open="false" node1="0" node2="7"/>
	<switch id="N2_8" name="N2_8" kind="DISCONNECTOR" retained="false" open="false" node1="0" node2="8"/>
      </nodeBreakerTopology>
    <generator id="g2" energySource="THERMAL" minP="0"  maxP="11916.315" voltageRegulatorOn="true" targetP="8203.43" targetQ="0" targetV="400" node="7" p="-8203.43">
        <property name="genreCvg" value="GAZ"/>
        <reactiveCapabilityCurve>
          <point p="0" minQ="-200" maxQ="200"/>
          <point p="2000" minQ="-200" maxQ="200"/>
        </reactiveCapabilityCurve>
    </generator>
    <load id="L2" loadType="UNDEFINED" p0="1790.80763082192" q0="0" node="8" p="1790.80763082192"/>
    </voltageLevel>
  </substation>
                     
  <substation id="substation_3" country="FR" tso="RTE">
    <property name="paysCvg" value="FRANCE"/>
    <property name="regionCvg" value="LILLE"/>
    <voltageLevel id="poste_3" nominalV="400" lowVoltageLimit="380" highVoltageLimit="420" topologyKind="NODE_BREAKER">
      <nodeBreakerTopology nodeCount="8">
        <busbarSection id="N3_B1" name="B1" node="0" v="400" angle="0"/>
        <!--<busbarSection id="N3_B2" name="B2" node="1" v="400" angle="0"/>-->
	<switch id="N3_1" name="N3_1" kind="DISCONNECTOR" retained="false" open="false" node1="0" node2="1"/>
	<switch id="N3_2" name="N3_2" kind="DISCONNECTOR" retained="false" open="false" node1="0" node2="2"/>
	<switch id="N3_3" name="N3_3" kind="DISCONNECTOR" retained="false" open="false" node1="0" node2="3"/>
	<switch id="N3_4" name="N3_4" kind="DISCONNECTOR" retained="false" open="false" node1="0" node2="4"/>
  <switch id="N3_5" name="N3_5" kind="DISCONNECTOR" retained="false" open="false" node1="0" node2="5"/>
  <switch id="N3_6" name="N3_6" kind="DISCONNECTOR" retained="false" open="false" node1="0" node2="6"/>
  <switch id="N3_7" name="N3_7" kind="DISCONNECTOR" retained="false" open="false" node1="0" node2="7"/>
      </nodeBreakerTopology>
    <generator id="g3" energySource="THERMAL" minP="0"  maxP="533.35" voltageRegulatorOn="true" targetP="117.11" targetQ="0" targetV="400" node="5" p="-117.11">
        <property name="genreCvg" value="GAZ"/>
        <reactiveCapabilityCurve>
          <point p="0" minQ="-200" maxQ="200"/>
          <point p="2000" minQ="-200" maxQ="200"/>
        </reactiveCapabilityCurve>
    </generator>
    <load id="L3" loadType="UNDEFINED" p0="2248.47" q0="0" node="6" p="2248.47"/>
    </voltageLevel>
  </substation>
                     
  <substation id="substation_4" country="FR" tso="RTE">
    <property name="paysCvg" value="FRANCE"/>
    <property name="regionCvg" value="LILLE"/>
    <voltageLevel id="poste_4" nominalV="400" lowVoltageLimit="380" highVoltageLimit="420" topologyKind="NODE_BREAKER">
      <nodeBreakerTopology nodeCount="8">
        <busbarSection id="N4_B1" name="B1" node="0" v="400" angle="0"/>
        <!--<busbarSection id="N4_B2" name="B2" node="1" v="400" angle="0"/>-->
	<switch id="N4_1" name="N4_1" kind="DISCONNECTOR" retained="false" open="false" node1="0" node2="1"/>
	<switch id="N4_2" name="N4_2" kind="DISCONNECTOR" retained="false" open="false" node1="0" node2="2"/>
	<switch id="N4_3" name="N4_3" kind="DISCONNECTOR" retained="false" open="false" node1="0" node2="3"/>
	<switch id="N4_4" name="N4_4" kind="DISCONNECTOR" retained="false" open="false" node1="0" node2="4"/>
	<switch id="N4_5" name="N4_5" kind="DISCONNECTOR" retained="false" open="false" node1="0" node2="5"/>
	<switch id="N4_6" name="N4_6" kind="DISCONNECTOR" retained="false" open="false" node1="0" node2="6"/>
      </nodeBreakerTopology>
    <generator id="g4" energySource="THERMAL" minP="0"  maxP="11570" voltageRegulatorOn="true" targetP="7658.06" targetQ="0" targetV="400" node="5" p="-7658.06">
        <property name="genreCvg" value="GAZ"/>
        <reactiveCapabilityCurve>
          <point p="0" minQ="-200" maxQ="200"/>
          <point p="2000" minQ="-200" maxQ="200"/>
        </reactiveCapabilityCurve>
    </generator>
    <load id="L4" loadType="UNDEFINED" p0="2725.60312374429" q0="0" node="6" p="2725.60312374429"/>
    </voltageLevel>
  </substation>
                     
  <substation id="substation_5" country="FR" tso="RTE">
    <property name="paysCvg" value="FRANCE"/>
    <property name="regionCvg" value="LILLE"/>
    <voltageLevel id="poste_5" nominalV="400" lowVoltageLimit="380" highVoltageLimit="420" topologyKind="NODE_BREAKER">
      <nodeBreakerTopology nodeCount="7">
        <busbarSection id="N5_B1" name="B1" node="0" v="400" angle="0"/>
        <!--<busbarSection id="N5_B2" name="B2" node="1" v="400" angle="0"/>-->
	<switch id="N5_1" name="N5_1" kind="DISCONNECTOR" retained="false" open="false" node1="0" node2="1"/>
	<switch id="N5_2" name="N5_2" kind="DISCONNECTOR" retained="false" open="false" node1="0" node2="2"/>
	<switch id="N5_3" name="N5_3" kind="DISCONNECTOR" retained="false" open="false" node1="0" node2="3"/>
	<switch id="N5_4" name="N5_4" kind="DISCONNECTOR" retained="false" open="false" node1="0" node2="4"/>
	<switch id="N5_5" name="N5_5" kind="DISCONNECTOR" retained="false" open="false" node1="0" node2="5"/>
      </nodeBreakerTopology>
    <generator id="g5" energySource="THERMAL" minP="0"  maxP="6905.75" voltageRegulatorOn="true" targetP="4151.27" targetQ="0" targetV="400" node="4" p="-4151.27">
        <property name="genreCvg" value="GAZ"/>
        <reactiveCapabilityCurve>
          <point p="0" minQ="-200" maxQ="200"/>
          <point p="2000" minQ="-200" maxQ="200"/>
        </reactiveCapabilityCurve>
    </generator>
    <load id="L5" loadType="UNDEFINED" p0="6057.125" q0="0" node="5" p="6057.125"/>
    </voltageLevel>
  </substation>
                     
  <substation id="substation_6" country="FR" tso="RTE">
    <property name="paysCvg" value="FRANCE"/>
    <property name="regionCvg" value="LILLE"/>
    <voltageLevel id="poste_6" nominalV="400" lowVoltageLimit="380" highVoltageLimit="420" topologyKind="NODE_BREAKER">
      <nodeBreakerTopology nodeCount="9">
        <busbarSection id="N6_B1" name="B1" node="0" v="400" angle="0"/>
        <!--<busbarSection id="N6_B2" name="B2" node="1" v="400" angle="0"/>-->
	<switch id="N6_1" name="N6_1" kind="DISCONNECTOR" retained="false" open="false" node1="0" node2="1"/>
	<switch id="N6_2" name="N6_2" kind="DISCONNECTOR" retained="false" open="false" node1="0" node2="2"/>
	<switch id="N6_3" name="N6_3" kind="DISCONNECTOR" retained="false" open="false" node1="0" node2="3"/>
	<switch id="N6_4" name="N6_4" kind="DISCONNECTOR" retained="false" open="false" node1="0" node2="4"/>
	<switch id="N6_5" name="N6_5" kind="DISCONNECTOR" retained="false" open="false" node1="0" node2="5"/>
  <switch id="N6_6" name="N6_6" kind="DISCONNECTOR" retained="false" open="false" node1="0" node2="6"/>
  <switch id="N6_7" name="N6_7" kind="DISCONNECTOR" retained="false" open="false" node1="0" node2="7"/>
      </nodeBreakerTopology>
    <generator id="g6" energySource="THERMAL" minP="0"  maxP="17453.41" voltageRegulatorOn="true" targetP="9901.2549" targetQ="0" targetV="400" node="4" p="-9901.2549">
        <property name="genreCvg" value="GAZ"/>
        <reactiveCapabilityCurve>
          <point p="0" minQ="-200" maxQ="200"/>
          <point p="2000" minQ="-200" maxQ="200"/>
        </reactiveCapabilityCurve>
    </generator>
    <load id="L6" loadType="UNDEFINED" p0="6145.036" q0="0" node="5" p="6145.036"/>
    </voltageLevel>
  </substation>
                     
  <substation id="substation_7" country="FR" tso="RTE">
    <property name="paysCvg" value="FRANCE"/>
    <property name="regionCvg" value="LILLE"/>
    <voltageLevel id="poste_7" nominalV="400" lowVoltageLimit="380" highVoltageLimit="420" topologyKind="NODE_BREAKER">
      <nodeBreakerTopology nodeCount="8">
        <busbarSection id="N7_B1" name="B1" node="0" v="400" angle="0"/>
        <!--<busbarSection id="N7_B2" name="B2" node="1" v="400" angle="0"/>-->
	<switch id="N7_1" name="N7_1" kind="DISCONNECTOR" retained="false" open="false" node1="0" node2="1"/>
	<switch id="N7_2" name="N7_2" kind="DISCONNECTOR" retained="false" open="false" node1="0" node2="2"/>
	<switch id="N7_3" name="N7_3" kind="DISCONNECTOR" retained="false" open="false" node1="0" node2="3"/>
	<switch id="N7_4" name="N7_4" kind="DISCONNECTOR" retained="false" open="false" node1="0" node2="4"/>
	<switch id="N7_5" name="N7_5" kind="DISCONNECTOR" retained="false" open="false" node1="0" node2="5"/>
	<switch id="N7_6" name="N7_6" kind="DISCONNECTOR" retained="false" open="false" node1="0" node2="6"/>
      </nodeBreakerTopology>
    <generator id="g7" energySource="THERMAL" minP="0"  maxP="1663.7" voltageRegulatorOn="true" targetP="375.7773" targetQ="0" targetV="400" node="5" p="-375.7773">
        <property name="genreCvg" value="GAZ"/>
        <reactiveCapabilityCurve>
          <point p="0" minQ="-200" maxQ="200"/>
          <point p="2000" minQ="-200" maxQ="200"/>
        </reactiveCapabilityCurve>
    </generator>
    <load id="L7" loadType="UNDEFINED" p0="2623.55716267123" q0="0" node="6" p="2623.55716267123"/>
    </voltageLevel>
  </substation>
                     
  <substation id="substation_8" country="FR" tso="RTE">
    <property name="paysCvg" value="FRANCE"/>
    <property name="regionCvg" value="LILLE"/>
    <voltageLevel id="poste_8" nominalV="400" lowVoltageLimit="380" highVoltageLimit="420" topologyKind="NODE_BREAKER">
      <nodeBreakerTopology nodeCount="6">
        <busbarSection id="N8_B1" name="B1" node="0" v="400" angle="0"/>
        <!--<busbarSection id="N8_B2" name="B2" node="1" v="400" angle="0"/>-->
	<switch id="N8_1" name="N8_1" kind="DISCONNECTOR" retained="false" open="false" node1="0" node2="1"/>
	<switch id="N8_2" name="N8_2" kind="DISCONNECTOR" retained="false" open="false" node1="0" node2="2"/>
	<switch id="N8_3" name="N8_3" kind="DISCONNECTOR" retained="false" open="false" node1="0" node2="3"/>
	<switch id="N8_4" name="N8_4" kind="DISCONNECTOR" retained="false" open="false" node1="0" node2="4"/>
      </nodeBreakerTopology>
    <generator id="g8" energySource="THERMAL" minP="0"  maxP="770.62" voltageRegulatorOn="true" targetP="174.0587" targetQ="0" targetV="400" node="3" p="-174.0587">
        <property name="genreCvg" value="GAZ"/>
        <reactiveCapabilityCurve>
          <point p="0" minQ="-200" maxQ="200"/>
          <point p="2000" minQ="-200" maxQ="200"/>
        </reactiveCapabilityCurve>
    </generator>
    <load id="L8" loadType="UNDEFINED" p0="2202.07768812785" q0="0" node="4" p="2202.07768812785"/>
    </voltageLevel>
  </substation>
                     
  <substation id="substation_9" country="FR" tso="RTE">
    <property name="paysCvg" value="FRANCE"/>
    <property name="regionCvg" value="LILLE"/>
    <voltageLevel id="poste_9" nominalV="400" lowVoltageLimit="380" highVoltageLimit="420" topologyKind="NODE_BREAKER">
      <nodeBreakerTopology nodeCount="7">
        <busbarSection id="N9_B1" name="B1" node="0" v="400" angle="0"/>
        <!--<busbarSection id="N9_B2" name="B2" node="1" v="400" angle="0"/>-->
	<switch id="N9_1" name="N9_1" kind="DISCONNECTOR" retained="false" open="false" node1="0" node2="1"/>
	<switch id="N9_2" name="N9_2" kind="DISCONNECTOR" retained="false" open="false" node1="0" node2="2"/>
	<switch id="N9_3" name="N9_3" kind="DISCONNECTOR" retained="false" open="false" node1="0" node2="3"/>
	<switch id="N9_4" name="N9_4" kind="DISCONNECTOR" retained="false" open="false" node1="0" node2="4"/>
	<switch id="N9_5" name="N9_5" kind="DISCONNECTOR" retained="false" open="false" node1="0" node2="5"/>
      </nodeBreakerTopology>
    <generator id="g9" energySource="THERMAL" minP="0"  maxP="8870.805" voltageRegulatorOn="true" targetP="5120.6613" targetQ="0" targetV="400" node="4" p="-5120.6613">
        <property name="genreCvg" value="GAZ"/>
        <reactiveCapabilityCurve>
          <point p="0" minQ="-200" maxQ="200"/>
          <point p="2000" minQ="-200" maxQ="200"/>
        </reactiveCapabilityCurve>
    </generator>
    <load id="L9" loadType="UNDEFINED" p0="4671.970" q0="0" node="5" p="4671.970"/>
    </voltageLevel>
  </substation>
                     
  <substation id="substation_10" country="FR" tso="RTE">
    <property name="paysCvg" value="FRANCE"/>
    <property name="regionCvg" value="LILLE"/>
    <voltageLevel id="poste_10" nominalV="400" lowVoltageLimit="380" highVoltageLimit="420" topologyKind="NODE_BREAKER">
      <nodeBreakerTopology nodeCount="8">
        <busbarSection id="N10_B1" name="B1" node="0" v="400" angle="0"/>
        <!--<busbarSection id="N10_B2" name="B2" node="1" v="400" angle="0"/>-->
	<switch id="N10_1" name="N10_1" kind="DISCONNECTOR" retained="false" open="false" node1="0" node2="1"/>
	<switch id="N10_2" name="N10_2" kind="DISCONNECTOR" retained="false" open="false" node1="0" node2="2"/>
	<switch id="N10_3" name="N10_3" kind="DISCONNECTOR" retained="false" open="false" node1="0" node2="3"/>
	<switch id="N10_4" name="N10_4" kind="DISCONNECTOR" retained="false" open="false" node1="0" node2="4"/>
	<switch id="N10_5" name="N10_5" kind="DISCONNECTOR" retained="false" open="false" node1="0" node2="5"/>
	<switch id="N10_6" name="N10_6" kind="DISCONNECTOR" retained="false" open="false" node1="0" node2="6"/>
      </nodeBreakerTopology>
    <generator id="g10" energySource="THERMAL" minP="0"  maxP="8095.724" voltageRegulatorOn="true" targetP="3077.3840" targetQ="0" targetV="400" node="5" p="-3077.3840">
        <property name="genreCvg" value="GAZ"/>
        <reactiveCapabilityCurve>
          <point p="0" minQ="-200" maxQ="200"/>
          <point p="2000" minQ="-200" maxQ="200"/>
        </reactiveCapabilityCurve>
    </generator>
    <load id="L10" loadType="UNDEFINED" p0="4156.719" q0="0" node="6" p="4156.719"/>
    </voltageLevel>
  </substation>
                     
  <substation id="substation_11" country="FR" tso="RTE">
    <property name="paysCvg" value="FRANCE"/>
    <property name="regionCvg" value="LILLE"/>
    <voltageLevel id="poste_11" nominalV="400" lowVoltageLimit="380" highVoltageLimit="420" topologyKind="NODE_BREAKER">
      <nodeBreakerTopology nodeCount="7">
        <busbarSection id="N11_B1" name="B1" node="0" v="400" angle="0"/>
        <!--<busbarSection id="N11_B2" name="B2" node="1" v="400" angle="0"/>-->
	<switch id="N11_1" name="N11_1" kind="DISCONNECTOR" retained="false" open="false" node1="0" node2="1"/>
	<switch id="N11_2" name="N11_2" kind="DISCONNECTOR" retained="false" open="false" node1="0" node2="2"/>
	<switch id="N11_3" name="N11_3" kind="DISCONNECTOR" retained="false" open="false" node1="0" node2="3"/>
	<switch id="N11_4" name="N11_4" kind="DISCONNECTOR" retained="false" open="false" node1="0" node2="4"/>
	<switch id="N11_5" name="N11_5" kind="DISCONNECTOR" retained="false" open="false" node1="0" node2="5"/>
      </nodeBreakerTopology>
    <generator id="g11" energySource="THERMAL" minP="0"  maxP="25792.119" voltageRegulatorOn="true" targetP="12260.0977" targetQ="0" targetV="400" node="4" p="-12260.0977">
        <property name="genreCvg" value="GAZ"/>
        <reactiveCapabilityCurve>
          <point p="0" minQ="-200" maxQ="200"/>
          <point p="2000" minQ="-200" maxQ="200"/>
        </reactiveCapabilityCurve>
    </generator>
    <load id="L11" loadType="UNDEFINED" p0="8547.169" q0="0" node="5" p="8547.169"/>
    </voltageLevel>
  </substation>
                     
  <substation id="substation_12" country="FR" tso="RTE">
    <property name="paysCvg" value="FRANCE"/>
    <property name="regionCvg" value="LILLE"/>
    <voltageLevel id="poste_12" nominalV="400" lowVoltageLimit="380" highVoltageLimit="420" topologyKind="NODE_BREAKER">
      <nodeBreakerTopology nodeCount="6">
        <busbarSection id="N12_B1" name="B1" node="0" v="400" angle="0"/>
        <!--<busbarSection id="N12_B2" name="B2" node="1" v="400" angle="0"/>-->
	<switch id="N12_1" name="N12_1" kind="DISCONNECTOR" retained="false" open="false" node1="0" node2="1"/>
	<switch id="N12_2" name="N12_2" kind="DISCONNECTOR" retained="false" open="false" node1="0" node2="2"/>
	<switch id="N12_3" name="N12_3" kind="DISCONNECTOR" retained="false" open="false" node1="0" node2="3"/>
  <switch id="N12_4" name="N12_4" kind="DISCONNECTOR" retained="false" open="false" node1="0" node2="4"/>
      </nodeBreakerTopology>
    <generator id="g12" energySource="THERMAL" minP="0"  maxP="6636.692" voltageRegulatorOn="true" targetP="1486.8081" targetQ="0" targetV="400" node="2" p="-1486.8081">
        <property name="genreCvg" value="GAZ"/>
        <reactiveCapabilityCurve>
          <point p="0" minQ="-200" maxQ="200"/>
          <point p="2000" minQ="-200" maxQ="200"/>
        </reactiveCapabilityCurve>
    </generator>
    <load id="L12" loadType="UNDEFINED" p0="4189.64640296804" q0="0" node="3" p="4189.64640296804"/>
    </voltageLevel>
  </substation>



  <substation id="substation_13" country="FR" tso="RTE">
    <property name="paysCvg" value="FRANCE"/>
    <property name="regionCvg" value="LILLE"/>
    <voltageLevel id="poste_13" nominalV="400" lowVoltageLimit="380" highVoltageLimit="420" topologyKind="NODE_BREAKER">
      <nodeBreakerTopology nodeCount="9">
        <busbarSection id="N13_B1" name="B1" node="0" v="400" angle="0"/>
        <!--<busbarSection id="N1_B2" name="B2" node="1" v="400" angle="0"/>-->
        <switch id="N13_1" name="N13_1" kind="DISCONNECTOR" retained="false" open="false" node1="0" node2="1"/>
  <switch id="N13_2" name="N13_2" kind="DISCONNECTOR" retained="false" open="false" node1="0" node2="2"/>
  <switch id="N13_3" name="N13_3" kind="DISCONNECTOR" retained="false" open="false" node1="0" node2="3"/>
  <switch id="N13_4" name="N13_4" kind="DISCONNECTOR" retained="false" open="false" node1="0" node2="4"/>
  <switch id="N13_5" name="N13_5" kind="DISCONNECTOR" retained="false" open="false" node1="0" node2="5"/>
  <switch id="N13_6" name="N13_6" kind="DISCONNECTOR" retained="false" open="false" node1="0" node2="6"/>
  <switch id="N13_7" name="N13_7" kind="DISCONNECTOR" retained="false" open="false" node1="0" node2="7"/>
      </nodeBreakerTopology>
    <generator id="g13" energySource="THERMAL" minP="0"  maxP="1809.1" voltageRegulatorOn="true" targetP="408.62" targetQ="0" targetV="400" node="6" p="-408.62">
        <property name="genreCvg" value="GAZ"/>
        <reactiveCapabilityCurve>
          <point p="0" minQ="-200" maxQ="200"/>
          <point p="2000" minQ="-200" maxQ="200"/>
        </reactiveCapabilityCurve>
    </generator>
    <load id="L13" loadType="UNDEFINED" p0="7576.36410319635" q0="0" node="7" p="7576.36410319635"/>
    </voltageLevel>
  </substation>
                     
  <substation id="substation_14" country="FR" tso="RTE">
    <property name="paysCvg" value="FRANCE"/>
    <property name="regionCvg" value="LILLE"/>
    <voltageLevel id="poste_14" nominalV="400" lowVoltageLimit="380" highVoltageLimit="420" topologyKind="NODE_BREAKER">
      <nodeBreakerTopology nodeCount="10">
        <busbarSection id="N14_B1" name="B1" node="0" v="400" angle="0"/>
        <!--<busbarSection id="N2_B2" name="B2" node="1" v="400" angle="0"/>-->
  <switch id="N14_1" name="N14_1" kind="DISCONNECTOR" retained="false" open="false" node1="0" node2="1"/>
  <switch id="N14_2" name="N14_2" kind="DISCONNECTOR" retained="false" open="false" node1="0" node2="2"/>
  <switch id="N14_3" name="N14_3" kind="DISCONNECTOR" retained="false" open="false" node1="0" node2="3"/>
  <switch id="N14_4" name="N14_4" kind="DISCONNECTOR" retained="false" open="false" node1="0" node2="4"/>
  <switch id="N14_5" name="N14_5" kind="DISCONNECTOR" retained="false" open="false" node1="0" node2="5"/>
  <switch id="N14_6" name="N14_6" kind="DISCONNECTOR" retained="false" open="false" node1="0" node2="6"/>
  <switch id="N14_7" name="N14_7" kind="DISCONNECTOR" retained="false" open="false" node1="0" node2="7"/>
  <switch id="N14_8" name="N14_8" kind="DISCONNECTOR" retained="false" open="false" node1="0" node2="8"/>
      </nodeBreakerTopology>
    <generator id="g14" energySource="THERMAL" minP="0"  maxP="11916.315" voltageRegulatorOn="true" targetP="8203.43" targetQ="0" targetV="400" node="7" p="-8203.43">
        <property name="genreCvg" value="GAZ"/>
        <reactiveCapabilityCurve>
          <point p="0" minQ="-200" maxQ="200"/>
          <point p="2000" minQ="-200" maxQ="200"/>
        </reactiveCapabilityCurve>
    </generator>
    <load id="L14" loadType="UNDEFINED" p0="1790.80763082192" q0="0" node="8" p="1790.80763082192"/>
    </voltageLevel>
  </substation>
                     
  <substation id="substation_15" country="FR" tso="RTE">
    <property name="paysCvg" value="FRANCE"/>
    <property name="regionCvg" value="LILLE"/>
    <voltageLevel id="poste_15" nominalV="400" lowVoltageLimit="380" highVoltageLimit="420" topologyKind="NODE_BREAKER">
      <nodeBreakerTopology nodeCount="8">
        <busbarSection id="N15_B1" name="B1" node="0" v="400" angle="0"/>
        <!--<busbarSection id="N3_B2" name="B2" node="1" v="400" angle="0"/>-->
  <switch id="N15_1" name="N15_1" kind="DISCONNECTOR" retained="false" open="false" node1="0" node2="1"/>
  <switch id="N15_2" name="N15_2" kind="DISCONNECTOR" retained="false" open="false" node1="0" node2="2"/>
  <switch id="N15_3" name="N15_3" kind="DISCONNECTOR" retained="false" open="false" node1="0" node2="3"/>
  <switch id="N15_4" name="N15_4" kind="DISCONNECTOR" retained="false" open="false" node1="0" node2="4"/>
  <switch id="N15_5" name="N15_5" kind="DISCONNECTOR" retained="false" open="false" node1="0" node2="5"/>
  <switch id="N15_6" name="N15_6" kind="DISCONNECTOR" retained="false" open="false" node1="0" node2="6"/>
      </nodeBreakerTopology>
    <generator id="g15" energySource="THERMAL" minP="0"  maxP="533.35" voltageRegulatorOn="true" targetP="117.11" targetQ="0" targetV="400" node="5" p="-117.11">
        <property name="genreCvg" value="GAZ"/>
        <reactiveCapabilityCurve>
          <point p="0" minQ="-200" maxQ="200"/>
          <point p="2000" minQ="-200" maxQ="200"/>
        </reactiveCapabilityCurve>
    </generator>
    <load id="L15" loadType="UNDEFINED" p0="2248.47" q0="0" node="6" p="2248.47"/>
    </voltageLevel>
  </substation>
                     
  <substation id="substation_16" country="FR" tso="RTE">
    <property name="paysCvg" value="FRANCE"/>
    <property name="regionCvg" value="LILLE"/>
    <voltageLevel id="poste_16" nominalV="400" lowVoltageLimit="380" highVoltageLimit="420" topologyKind="NODE_BREAKER">
      <nodeBreakerTopology nodeCount="8">
        <busbarSection id="N16_B1" name="B1" node="0" v="400" angle="0"/>
        <!--<busbarSection id="N4_B2" name="B2" node="1" v="400" angle="0"/>-->
  <switch id="N16_1" name="N16_1" kind="DISCONNECTOR" retained="false" open="false" node1="0" node2="1"/>
  <switch id="N16_2" name="N16_2" kind="DISCONNECTOR" retained="false" open="false" node1="0" node2="2"/>
  <switch id="N16_3" name="N16_3" kind="DISCONNECTOR" retained="false" open="false" node1="0" node2="3"/>
  <switch id="N16_4" name="N16_4" kind="DISCONNECTOR" retained="false" open="false" node1="0" node2="4"/>
  <switch id="N16_5" name="N16_5" kind="DISCONNECTOR" retained="false" open="false" node1="0" node2="5"/>
  <switch id="N16_6" name="N16_6" kind="DISCONNECTOR" retained="false" open="false" node1="0" node2="6"/>
      </nodeBreakerTopology>
    <generator id="g16" energySource="THERMAL" minP="0"  maxP="11570" voltageRegulatorOn="true" targetP="7658.06" targetQ="0" targetV="400" node="5" p="-7658.06">
        <property name="genreCvg" value="GAZ"/>
        <reactiveCapabilityCurve>
          <point p="0" minQ="-200" maxQ="200"/>
          <point p="2000" minQ="-200" maxQ="200"/>
        </reactiveCapabilityCurve>
    </generator>
    <load id="L16" loadType="UNDEFINED" p0="2725.60312374429" q0="0" node="6" p="2725.60312374429"/>
    </voltageLevel>
  </substation>
                     
  <substation id="substation_17" country="FR" tso="RTE">
    <property name="paysCvg" value="FRANCE"/>
    <property name="regionCvg" value="LILLE"/>
    <voltageLevel id="poste_17" nominalV="400" lowVoltageLimit="380" highVoltageLimit="420" topologyKind="NODE_BREAKER">
      <nodeBreakerTopology nodeCount="7">
        <busbarSection id="N17_B1" name="B1" node="0" v="400" angle="0"/>
        <!--<busbarSection id="N5_B2" name="B2" node="1" v="400" angle="0"/>-->
  <switch id="N17_1" name="N17_1" kind="DISCONNECTOR" retained="false" open="false" node1="0" node2="1"/>
  <switch id="N17_2" name="N17_2" kind="DISCONNECTOR" retained="false" open="false" node1="0" node2="2"/>
  <switch id="N17_3" name="N17_3" kind="DISCONNECTOR" retained="false" open="false" node1="0" node2="3"/>
  <switch id="N17_4" name="N17_4" kind="DISCONNECTOR" retained="false" open="false" node1="0" node2="4"/>
  <switch id="N17_5" name="N17_5" kind="DISCONNECTOR" retained="false" open="false" node1="0" node2="5"/>
      </nodeBreakerTopology>
    <generator id="g17" energySource="THERMAL" minP="0"  maxP="6905.75" voltageRegulatorOn="true" targetP="4151.27" targetQ="0" targetV="400" node="4" p="-4151.27">
        <property name="genreCvg" value="GAZ"/>
        <reactiveCapabilityCurve>
          <point p="0" minQ="-200" maxQ="200"/>
          <point p="2000" minQ="-200" maxQ="200"/>
        </reactiveCapabilityCurve>
    </generator>
    <load id="L17" loadType="UNDEFINED" p0="6057.125" q0="0" node="5" p="6057.125"/>
    </voltageLevel>
  </substation>
                     
  <substation id="substation_18" country="FR" tso="RTE">
    <property name="paysCvg" value="FRANCE"/>
    <property name="regionCvg" value="LILLE"/>
    <voltageLevel id="poste_18" nominalV="400" lowVoltageLimit="380" highVoltageLimit="420" topologyKind="NODE_BREAKER">
      <nodeBreakerTopology nodeCount="7">
        <busbarSection id="N18_B1" name="B1" node="0" v="400" angle="0"/>
        <!--<busbarSection id="N6_B2" name="B2" node="1" v="400" angle="0"/>-->
  <switch id="N18_1" name="N18_1" kind="DISCONNECTOR" retained="false" open="false" node1="0" node2="1"/>
  <switch id="N18_2" name="N18_2" kind="DISCONNECTOR" retained="false" open="false" node1="0" node2="2"/>
  <switch id="N18_3" name="N18_3" kind="DISCONNECTOR" retained="false" open="false" node1="0" node2="3"/>
  <switch id="N18_4" name="N18_4" kind="DISCONNECTOR" retained="false" open="false" node1="0" node2="4"/>
  <switch id="N18_5" name="N18_5" kind="DISCONNECTOR" retained="false" open="false" node1="0" node2="5"/>
      </nodeBreakerTopology>
    <generator id="g18" energySource="THERMAL" minP="0"  maxP="17453.41" voltageRegulatorOn="true" targetP="9901.2549" targetQ="0" targetV="400" node="4" p="-9901.2549">
        <property name="genreCvg" value="GAZ"/>
        <reactiveCapabilityCurve>
          <point p="0" minQ="-200" maxQ="200"/>
          <point p="2000" minQ="-200" maxQ="200"/>
        </reactiveCapabilityCurve>
    </generator>
    <load id="L18" loadType="UNDEFINED" p0="6145.036" q0="0" node="5" p="6145.036"/>
    </voltageLevel>
  </substation>
                     
  <substation id="substation_19" country="FR" tso="RTE">
    <property name="paysCvg" value="FRANCE"/>
    <property name="regionCvg" value="LILLE"/>
    <voltageLevel id="poste_19" nominalV="400" lowVoltageLimit="380" highVoltageLimit="420" topologyKind="NODE_BREAKER">
      <nodeBreakerTopology nodeCount="8">
        <busbarSection id="N19_B1" name="B1" node="0" v="400" angle="0"/>
        <!--<busbarSection id="N7_B2" name="B2" node="1" v="400" angle="0"/>-->
  <switch id="N19_1" name="N19_1" kind="DISCONNECTOR" retained="false" open="false" node1="0" node2="1"/>
  <switch id="N19_2" name="N19_2" kind="DISCONNECTOR" retained="false" open="false" node1="0" node2="2"/>
  <switch id="N19_3" name="N19_3" kind="DISCONNECTOR" retained="false" open="false" node1="0" node2="3"/>
  <switch id="N19_4" name="N19_4" kind="DISCONNECTOR" retained="false" open="false" node1="0" node2="4"/>
  <switch id="N19_5" name="N19_5" kind="DISCONNECTOR" retained="false" open="false" node1="0" node2="5"/>
  <switch id="N19_6" name="N19_6" kind="DISCONNECTOR" retained="false" open="false" node1="0" node2="6"/>
      </nodeBreakerTopology>
    <generator id="g19" energySource="THERMAL" minP="0"  maxP="1663.7" voltageRegulatorOn="true" targetP="375.7773" targetQ="0" targetV="400" node="5" p="-375.7773">
        <property name="genreCvg" value="GAZ"/>
        <reactiveCapabilityCurve>
          <point p="0" minQ="-200" maxQ="200"/>
          <point p="2000" minQ="-200" maxQ="200"/>
        </reactiveCapabilityCurve>
    </generator>
    <load id="L19" loadType="UNDEFINED" p0="2623.55716267123" q0="0" node="6" p="2623.55716267123"/>
    </voltageLevel>
  </substation>
                     
  <substation id="substation_20" country="FR" tso="RTE">
    <property name="paysCvg" value="FRANCE"/>
    <property name="regionCvg" value="LILLE"/>
    <voltageLevel id="poste_20" nominalV="400" lowVoltageLimit="380" highVoltageLimit="420" topologyKind="NODE_BREAKER">
      <nodeBreakerTopology nodeCount="7">
        <busbarSection id="N20_B1" name="B1" node="0" v="400" angle="0"/>
        <!--<busbarSection id="N8_B2" name="B2" node="1" v="400" angle="0"/>-->
  <switch id="N20_1" name="N20_1" kind="DISCONNECTOR" retained="false" open="false" node1="0" node2="1"/>
  <switch id="N20_2" name="N20_2" kind="DISCONNECTOR" retained="false" open="false" node1="0" node2="2"/>
  <switch id="N20_3" name="N20_3" kind="DISCONNECTOR" retained="false" open="false" node1="0" node2="3"/>
  <switch id="N20_4" name="N20_4" kind="DISCONNECTOR" retained="false" open="false" node1="0" node2="4"/>
  <switch id="N20_5" name="N20_5" kind="DISCONNECTOR" retained="false" open="false" node1="0" node2="5"/>
      </nodeBreakerTopology>
    <generator id="g20" energySource="THERMAL" minP="0"  maxP="770.62" voltageRegulatorOn="true" targetP="174.0587" targetQ="0" targetV="400" node="3" p="-174.0587">
        <property name="genreCvg" value="GAZ"/>
        <reactiveCapabilityCurve>
          <point p="0" minQ="-200" maxQ="200"/>
          <point p="2000" minQ="-200" maxQ="200"/>
        </reactiveCapabilityCurve>
    </generator>
    <load id="L20" loadType="UNDEFINED" p0="2202.07768812785" q0="0" node="4" p="2202.07768812785"/>
    </voltageLevel>
  </substation>
                     
  <substation id="substation_21" country="FR" tso="RTE">
    <property name="paysCvg" value="FRANCE"/>
    <property name="regionCvg" value="LILLE"/>
    <voltageLevel id="poste_21" nominalV="400" lowVoltageLimit="380" highVoltageLimit="420" topologyKind="NODE_BREAKER">
      <nodeBreakerTopology nodeCount="9">
        <busbarSection id="N21_B1" name="B1" node="0" v="400" angle="0"/>
        <!--<busbarSection id="N9_B2" name="B2" node="1" v="400" angle="0"/>-->
  <switch id="N21_1" name="N21_1" kind="DISCONNECTOR" retained="false" open="false" node1="0" node2="1"/>
  <switch id="N21_2" name="N21_2" kind="DISCONNECTOR" retained="false" open="false" node1="0" node2="2"/>
  <switch id="N21_3" name="N21_3" kind="DISCONNECTOR" retained="false" open="false" node1="0" node2="3"/>
  <switch id="N21_4" name="N21_4" kind="DISCONNECTOR" retained="false" open="false" node1="0" node2="4"/>
  <switch id="N21_5" name="N21_5" kind="DISCONNECTOR" retained="false" open="false" node1="0" node2="5"/>
  <switch id="N21_6" name="N21_6" kind="DISCONNECTOR" retained="false" open="false" node1="0" node2="6"/>
  <switch id="N21_7" name="N21_7" kind="DISCONNECTOR" retained="false" open="false" node1="0" node2="7"/>
      </nodeBreakerTopology>
    <generator id="g21" energySource="THERMAL" minP="0"  maxP="8870.805" voltageRegulatorOn="true" targetP="5120.6613" targetQ="0" targetV="400" node="4" p="-5120.6613">
        <property name="genreCvg" value="GAZ"/>
        <reactiveCapabilityCurve>
          <point p="0" minQ="-200" maxQ="200"/>
          <point p="2000" minQ="-200" maxQ="200"/>
        </reactiveCapabilityCurve>
    </generator>
    <load id="L21" loadType="UNDEFINED" p0="4671.970" q0="0" node="5" p="4671.970"/>
    </voltageLevel>
  </substation>
                     
  <substation id="substation_22" country="FR" tso="RTE">
    <property name="paysCvg" value="FRANCE"/>
    <property name="regionCvg" value="LILLE"/>
    <voltageLevel id="poste_22" nominalV="400" lowVoltageLimit="380" highVoltageLimit="420" topologyKind="NODE_BREAKER">
      <nodeBreakerTopology nodeCount="9">
        <busbarSection id="N22_B1" name="B1" node="0" v="400" angle="0"/>
        <!--<busbarSection id="N10_B2" name="B2" node="1" v="400" angle="0"/>-->
  <switch id="N22_1" name="N22_1" kind="DISCONNECTOR" retained="false" open="false" node1="0" node2="1"/>
  <switch id="N22_2" name="N22_2" kind="DISCONNECTOR" retained="false" open="false" node1="0" node2="2"/>
  <switch id="N22_3" name="N22_3" kind="DISCONNECTOR" retained="false" open="false" node1="0" node2="3"/>
  <switch id="N22_4" name="N22_4" kind="DISCONNECTOR" retained="false" open="false" node1="0" node2="4"/>
  <switch id="N22_5" name="N22_5" kind="DISCONNECTOR" retained="false" open="false" node1="0" node2="5"/>
  <switch id="N22_6" name="N22_6" kind="DISCONNECTOR" retained="false" open="false" node1="0" node2="6"/>
  <switch id="N22_7" name="N22_7" kind="DISCONNECTOR" retained="false" open="false" node1="0" node2="7"/>
      </nodeBreakerTopology>
    <generator id="g22" energySource="THERMAL" minP="0"  maxP="8095.724" voltageRegulatorOn="true" targetP="3077.3840" targetQ="0" targetV="400" node="5" p="-3077.3840">
        <property name="genreCvg" value="GAZ"/>
        <reactiveCapabilityCurve>
          <point p="0" minQ="-200" maxQ="200"/>
          <point p="2000" minQ="-200" maxQ="200"/>
        </reactiveCapabilityCurve>
    </generator>
    <load id="L22" loadType="UNDEFINED" p0="4156.719" q0="0" node="6" p="4156.719"/>
    </voltageLevel>
  </substation>
                     
  <substation id="substation_23" country="FR" tso="RTE">
    <property name="paysCvg" value="FRANCE"/>
    <property name="regionCvg" value="LILLE"/>
    <voltageLevel id="poste_23" nominalV="400" lowVoltageLimit="380" highVoltageLimit="420" topologyKind="NODE_BREAKER">
      <nodeBreakerTopology nodeCount="7">
        <busbarSection id="N23_B1" name="B1" node="0" v="400" angle="0"/>
        <!--<busbarSection id="N11_B2" name="B2" node="1" v="400" angle="0"/>-->
  <switch id="N23_1" name="N23_1" kind="DISCONNECTOR" retained="false" open="false" node1="0" node2="1"/>
  <switch id="N23_2" name="N23_2" kind="DISCONNECTOR" retained="false" open="false" node1="0" node2="2"/>
  <switch id="N23_3" name="N23_3" kind="DISCONNECTOR" retained="false" open="false" node1="0" node2="3"/>
  <switch id="N23_4" name="N23_4" kind="DISCONNECTOR" retained="false" open="false" node1="0" node2="4"/>
  <switch id="N23_5" name="N23_5" kind="DISCONNECTOR" retained="false" open="false" node1="0" node2="5"/>
      </nodeBreakerTopology>
    <generator id="g23" energySource="THERMAL" minP="0"  maxP="25792.119" voltageRegulatorOn="true" targetP="12260.0977" targetQ="0" targetV="400" node="4" p="-12260.0977">
        <property name="genreCvg" value="GAZ"/>
        <reactiveCapabilityCurve>
          <point p="0" minQ="-200" maxQ="200"/>
          <point p="2000" minQ="-200" maxQ="200"/>
        </reactiveCapabilityCurve>
    </generator>
    <load id="L23" loadType="UNDEFINED" p0="8547.169" q0="0" node="5" p="8547.169"/>
    </voltageLevel>
  </substation>
                     
  <substation id="substation_24" country="FR" tso="RTE">
    <property name="paysCvg" value="FRANCE"/>
    <property name="regionCvg" value="LILLE"/>
    <voltageLevel id="poste_24" nominalV="400" lowVoltageLimit="380" highVoltageLimit="420" topologyKind="NODE_BREAKER">
      <nodeBreakerTopology nodeCount="5">
        <busbarSection id="N24_B1" name="B1" node="0" v="400" angle="0"/>
        <!--<busbarSection id="N12_B2" name="B2" node="1" v="400" angle="0"/>-->
  <switch id="N24_1" name="N24_1" kind="DISCONNECTOR" retained="false" open="false" node1="0" node2="1"/>
  <switch id="N24_2" name="N24_2" kind="DISCONNECTOR" retained="false" open="false" node1="0" node2="2"/>
  <switch id="N24_3" name="N24_3" kind="DISCONNECTOR" retained="false" open="false" node1="0" node2="3"/>
      </nodeBreakerTopology>
    <generator id="g24" energySource="THERMAL" minP="0"  maxP="6636.692" voltageRegulatorOn="true" targetP="1486.8081" targetQ="0" targetV="400" node="2" p="-1486.8081">
        <property name="genreCvg" value="GAZ"/>
        <reactiveCapabilityCurve>
          <point p="0" minQ="-200" maxQ="200"/>
          <point p="2000" minQ="-200" maxQ="200"/>
        </reactiveCapabilityCurve>
    </generator>
    <load id="L24" loadType="UNDEFINED" p0="4189.64640296804" q0="0" node="3" p="4189.64640296804"/>
    </voltageLevel>
  </substation>

  <line id="1_2" r="0.003" x="155280.896833292" g1="0" b1="0" g2="0" b2="0" voltageLevelId1="poste_1" node1="1" voltageLevelId2="poste_2" node2="1" p1="0" p2="0">
    <currentLimits1 permanentLimit="1000">
    </currentLimits1>
  </line>    

  <line id="1_3" r="0.003" x="237667.856699095" g1="0" b1="0" g2="0" b2="0" voltageLevelId1="poste_1" node1="2" voltageLevelId2="poste_3" node2="1" p1="0" p2="0">
    <currentLimits1 permanentLimit="1000">
    </currentLimits1>
  </line>    

  <line id="1_4" r="0.003" x="201058.186955949" g1="0" b1="0" g2="0" b2="0" voltageLevelId1="poste_1" node1="3" voltageLevelId2="poste_4" node2="1" p1="0" p2="0">
    <currentLimits1 permanentLimit="1000">
    </currentLimits1>
  </line>    

  <line id="1_5" r="0.003" x="160164.168687704" g1="0" b1="0" g2="0" b2="0" voltageLevelId1="poste_1" node1="4" voltageLevelId2="poste_5" node2="1" p1="0" p2="0">
    <currentLimits1 permanentLimit="1000">
    </currentLimits1>
  </line>    

  <line id="1_6" r="0.003" x="242234.574993005" g1="0" b1="0" g2="0" b2="0" voltageLevelId1="poste_1" node1="5" voltageLevelId2="poste_6" node2="1" p1="0" p2="0">
    <currentLimits1 permanentLimit="1000">
    </currentLimits1>
    </line>    

  <line id="2_3" r="0.003" x="234795.55126078" g1="0" b1="0" g2="0" b2="0" voltageLevelId1="poste_2" node1="2" voltageLevelId2="poste_3" node2="2" p1="0" p2="0">
    <currentLimits1 permanentLimit="1000">
    </currentLimits1>
  </line>    

  <line id="2_7" r="0.003" x="183354.646061254" g1="0" b1="0" g2="0" b2="0" voltageLevelId1="poste_2" node1="3" voltageLevelId2="poste_7" node2="1" p1="0" p2="0">
    <currentLimits1 permanentLimit="1000">
    </currentLimits1>
  </line>    

  <line id="2_9" r="0.003" x="275931.962295907" g1="0" b1="0" g2="0" b2="0" voltageLevelId1="poste_2" node1="4" voltageLevelId2="poste_9" node2="1" p1="0" p2="0">
    <currentLimits1 permanentLimit="1000">
    </currentLimits1>
  </line>    

  <line id="2_10" r="0.003" x="407383.486840292" g1="0" b1="0" g2="0" b2="0" voltageLevelId1="poste_2" node1="5" voltageLevelId2="poste_10" node2="1" p1="0" p2="0">
    <currentLimits1 permanentLimit="1000">
    </currentLimits1>
  </line>    

  <line id="2_11" r="0.003" x="369661.538636098" g1="0" b1="0" g2="0" b2="0" voltageLevelId1="poste_2" node1="6" voltageLevelId2="poste_11" node2="1" p1="0" p2="0">
    <currentLimits1 permanentLimit="1000">
    </currentLimits1>
  </line>    

  <line id="3_6" r="0.003" x="197702.078052386" g1="0" b1="0" g2="0" b2="0" voltageLevelId1="poste_3" node1="3" voltageLevelId2="poste_6" node2="2" p1="0" p2="0">
    <currentLimits1 permanentLimit="1000">
    </currentLimits1>
  </line>    

  <line id="3_11" r="0.003" x="197191.281525415" g1="0" b1="0" g2="0" b2="0" voltageLevelId1="poste_3" node1="4" voltageLevelId2="poste_11" node2="2" p1="0" p2="0">
    <currentLimits1 permanentLimit="1000">
    </currentLimits1>
  </line>    

  <line id="4_5" r="0.003" x="212513.654976335" g1="0" b1="0" g2="0" b2="0" voltageLevelId1="poste_4" node1="2" voltageLevelId2="poste_5" node2="2" p1="0" p2="0">
    <currentLimits1 permanentLimit="1000">
    </currentLimits1>
  </line>    

  <line id="4_7" r="0.003" x="211402.098380198" g1="0" b1="0" g2="0" b2="0" voltageLevelId1="poste_4" node1="3" voltageLevelId2="poste_7" node2="2" p1="0" p2="0">
    <currentLimits1 permanentLimit="1000">
    </currentLimits1>
  </line>    

  <line id="4_8" r="0.003" x="245278.028336125" g1="0" b1="0" g2="0" b2="0" voltageLevelId1="poste_4" node1="4" voltageLevelId2="poste_8" node2="1" p1="0" p2="0">
    <currentLimits1 permanentLimit="1000">
    </currentLimits1>
  </line>    

  <line id="5_6" r="0.003" x="275176.957233937" g1="0" b1="0" g2="0" b2="0" voltageLevelId1="poste_5" node1="3" voltageLevelId2="poste_6" node2="3" p1="0" p2="0">
    <currentLimits1 permanentLimit="1000">
    </currentLimits1>
  </line>    

  <line id="7_8" r="0.003" x="166684.702799599" g1="0" b1="0" g2="0" b2="0" voltageLevelId1="poste_7" node1="3" voltageLevelId2="poste_8" node2="2" p1="0" p2="0">
    <currentLimits1 permanentLimit="1000">
    </currentLimits1>
  </line>    

  <line id="7_9" r="0.003" x="257940.995721005" g1="0" b1="0" g2="0" b2="0" voltageLevelId1="poste_7" node1="4" voltageLevelId2="poste_9" node2="2" p1="0" p2="0">
    <currentLimits1 permanentLimit="1000">
    </currentLimits1>
  </line>    

  <line id="9_10" r="0.003" x="265557.421914657" g1="0" b1="0" g2="0" b2="0" voltageLevelId1="poste_9" node1="3" voltageLevelId2="poste_10" node2="2" p1="0" p2="0">
    <currentLimits1 permanentLimit="1000">
    </currentLimits1>
  </line>    

  <line id="10_11" r="0.003" x="294180.960170099" g1="0" b1="0" g2="0" b2="0" voltageLevelId1="poste_10" node1="3" voltageLevelId2="poste_11" node2="3" p1="0" p2="0">
    <currentLimits1 permanentLimit="1000">
    </currentLimits1>
  </line>    

  <line id="10_12" r="0.003" x="267320.615667393" g1="0" b1="0" g2="0" b2="0" voltageLevelId1="poste_10" node1="4" voltageLevelId2="poste_12" node2="1" p1="0" p2="0">
    <currentLimits1 permanentLimit="1000">
    </currentLimits1>
  </line>


  <line id="13_14" r="0.003" x="155280.896833292" g1="0" b1="0" g2="0" b2="0" voltageLevelId1="poste_13" node1="1" voltageLevelId2="poste_14" node2="1" p1="0" p2="0">
    <currentLimits1 permanentLimit="1000">
    </currentLimits1>
  </line>    

  <line id="13_15" r="0.003" x="237667.856699095" g1="0" b1="0" g2="0" b2="0" voltageLevelId1="poste_13" node1="2" voltageLevelId2="poste_15" node2="1" p1="0" p2="0">
    <currentLimits1 permanentLimit="1000">
    </currentLimits1>
  </line>    

  <line id="13_16" r="0.003" x="201058.186955949" g1="0" b1="0" g2="0" b2="0" voltageLevelId1="poste_13" node1="3" voltageLevelId2="poste_16" node2="1" p1="0" p2="0">
    <currentLimits1 permanentLimit="1000">
    </currentLimits1>
  </line>    

  <line id="13_17" r="0.003" x="160164.168687704" g1="0" b1="0" g2="0" b2="0" voltageLevelId1="poste_13" node1="4" voltageLevelId2="poste_17" node2="1" p1="0" p2="0">
    <currentLimits1 permanentLimit="1000">
    </currentLimits1>
  </line>    

  <line id="13_18" r="0.003" x="242234.574993005" g1="0" b1="0" g2="0" b2="0" voltageLevelId1="poste_13" node1="5" voltageLevelId2="poste_18" node2="1" p1="0" p2="0">
    <currentLimits1 permanentLimit="1000">
    </currentLimits1>
    </line>    

  <line id="14_15" r="0.003" x="234795.55126078" g1="0" b1="0" g2="0" b2="0" voltageLevelId1="poste_14" node1="2" voltageLevelId2="poste_15" node2="2" p1="0" p2="0">
    <currentLimits1 permanentLimit="1000">
    </currentLimits1>
  </line>    

  <line id="14_19" r="0.003" x="183354.646061254" g1="0" b1="0" g2="0" b2="0" voltageLevelId1="poste_14" node1="3" voltageLevelId2="poste_19" node2="1" p1="0" p2="0">
    <currentLimits1 permanentLimit="1000">
    </currentLimits1>
  </line>    

  <line id="14_21" r="0.003" x="275931.962295907" g1="0" b1="0" g2="0" b2="0" voltageLevelId1="poste_14" node1="4" voltageLevelId2="poste_21" node2="1" p1="0" p2="0">
    <currentLimits1 permanentLimit="1000">
    </currentLimits1>
  </line>    

  <line id="14_22" r="0.003" x="407383.486840292" g1="0" b1="0" g2="0" b2="0" voltageLevelId1="poste_14" node1="5" voltageLevelId2="poste_22" node2="1" p1="0" p2="0">
    <currentLimits1 permanentLimit="1000">
    </currentLimits1>
  </line>    

  <line id="14_23" r="0.003" x="369661.538636098" g1="0" b1="0" g2="0" b2="0" voltageLevelId1="poste_14" node1="6" voltageLevelId2="poste_23" node2="1" p1="0" p2="0">
    <currentLimits1 permanentLimit="1000">
    </currentLimits1>
  </line>    

  <line id="15_18" r="0.003" x="197702.078052386" g1="0" b1="0" g2="0" b2="0" voltageLevelId1="poste_15" node1="3" voltageLevelId2="poste_18" node2="2" p1="0" p2="0">
    <currentLimits1 permanentLimit="1000">
    </currentLimits1>
  </line>    

  <line id="15_23" r="0.003" x="197191.281525415" g1="0" b1="0" g2="0" b2="0" voltageLevelId1="poste_15" node1="4" voltageLevelId2="poste_23" node2="2" p1="0" p2="0">
    <currentLimits1 permanentLimit="1000">
    </currentLimits1>
  </line>    

  <line id="16_17" r="0.003" x="212513.654976335" g1="0" b1="0" g2="0" b2="0" voltageLevelId1="poste_16" node1="2" voltageLevelId2="poste_17" node2="2" p1="0" p2="0">
    <currentLimits1 permanentLimit="1000">
    </currentLimits1>
  </line>    

  <line id="16_19" r="0.003" x="211402.098380198" g1="0" b1="0" g2="0" b2="0" voltageLevelId1="poste_16" node1="3" voltageLevelId2="poste_19" node2="2" p1="0" p2="0">
    <currentLimits1 permanentLimit="1000">
    </currentLimits1>
  </line>    

  <line id="16_20" r="0.003" x="245278.028336125" g1="0" b1="0" g2="0" b2="0" voltageLevelId1="poste_16" node1="4" voltageLevelId2="poste_20" node2="1" p1="0" p2="0">
    <currentLimits1 permanentLimit="1000">
    </currentLimits1>
  </line>    

  <line id="17_18" r="0.003" x="275176.957233937" g1="0" b1="0" g2="0" b2="0" voltageLevelId1="poste_17" node1="3" voltageLevelId2="poste_18" node2="3" p1="0" p2="0">
    <currentLimits1 permanentLimit="1000">
    </currentLimits1>
  </line>    

  <line id="19_20" r="0.003" x="166684.702799599" g1="0" b1="0" g2="0" b2="0" voltageLevelId1="poste_19" node1="3" voltageLevelId2="poste_20" node2="2" p1="0" p2="0">
    <currentLimits1 permanentLimit="1000">
    </currentLimits1>
  </line>    

  <line id="19_21" r="0.003" x="257940.995721005" g1="0" b1="0" g2="0" b2="0" voltageLevelId1="poste_19" node1="4" voltageLevelId2="poste_21" node2="2" p1="0" p2="0">
    <currentLimits1 permanentLimit="1000">
    </currentLimits1>
  </line>    

  <line id="21_22" r="0.003" x="265557.421914657" g1="0" b1="0" g2="0" b2="0" voltageLevelId1="poste_21" node1="3" voltageLevelId2="poste_22" node2="2" p1="0" p2="0">
    <currentLimits1 permanentLimit="1000">
    </currentLimits1>
  </line>    

  <line id="22_23" r="0.003" x="294180.960170099" g1="0" b1="0" g2="0" b2="0" voltageLevelId1="poste_22" node1="3" voltageLevelId2="poste_23" node2="3" p1="0" p2="0">
    <currentLimits1 permanentLimit="1000">
    </currentLimits1>
  </line>    

  <line id="22_24" r="0.003" x="267320.615667393" g1="0" b1="0" g2="0" b2="0" voltageLevelId1="poste_22" node1="4" voltageLevelId2="poste_24" node2="1" p1="0" p2="0">
    <currentLimits1 permanentLimit="1000">
    </currentLimits1>
  </line>

  <line id="6_20" r="0.003" x="267320.615667393" g1="0" b1="0" g2="0" b2="0" voltageLevelId1="poste_6" node1="6" voltageLevelId2="poste_20" node2="5" p1="0" p2="0">
    <currentLimits1 permanentLimit="1000">
    </currentLimits1>
  </line>

  <line id="6_21" r="0.003" x="267320.615667393" g1="0" b1="0" g2="0" b2="0" voltageLevelId1="poste_6" node1="7" voltageLevelId2="poste_21" node2="6" p1="0" p2="0">
    <currentLimits1 permanentLimit="1000">
    </currentLimits1>
  </line>

  <line id="3_21" r="0.003" x="267320.615667393" g1="0" b1="0" g2="0" b2="0" voltageLevelId1="poste_3" node1="7" voltageLevelId2="poste_21" node2="7" p1="0" p2="0">
    <currentLimits1 permanentLimit="1000">
    </currentLimits1>
  </line>

  <line id="12_22" r="0.003" x="267320.615667393" g1="0" b1="0" g2="0" b2="0" voltageLevelId1="poste_12" node1="4" voltageLevelId2="poste_22" node2="7" p1="0" p2="0">
    <currentLimits1 permanentLimit="1000">
    </currentLimits1>
  </line>

</network>